Kriging Interpolation Results - Multiple Dates
============================================================

Input file: sw_california_2023_2025/groundwater_data.csv
Output file: kriging.dat
Grid resolution: 50 x 50
Grid points per frame: 2500
Variogram model: spherical

Grid bounds:
  Lon: [-117.421197, -116.626197]
  Lat: [32.475270, 34.199514]

Dates processed: 110
Dates skipped: 0

============================================================
Statistics by Date
============================================================

2023-01-01:
  Input: 64 pts, 7.04 ~ 578.61 ft
  Output: 16.35 ~ 553.21 ft (mean: 153.74)

2023-01-11:
  Input: 65 pts, 6.93 ~ 585.23 ft
  Output: 18.09 ~ 548.56 ft (mean: 162.52)

2023-01-21:
  Input: 64 pts, 7.11 ~ 585.25 ft
  Output: 17.67 ~ 548.39 ft (mean: 161.21)

2023-01-31:
  Input: 62 pts, 8.81 ~ 584.97 ft
  Output: 25.06 ~ 554.54 ft (mean: 165.83)

2023-02-10:
  Input: 69 pts, 9.06 ~ 584.84 ft
  Output: 18.10 ~ 550.12 ft (mean: 162.59)

2023-02-20:
  Input: 68 pts, 8.93 ~ 584.52 ft
  Output: 17.67 ~ 550.46 ft (mean: 160.28)

2023-03-02:
  Input: 62 pts, 6.37 ~ 578.57 ft
  Output: 16.29 ~ 553.56 ft (mean: 150.70)

2023-03-12:
  Input: 63 pts, 6.94 ~ 584.26 ft
  Output: 17.84 ~ 548.04 ft (mean: 157.39)

2023-03-22:
  Input: 61 pts, 5.39 ~ 578.26 ft
  Output: 17.75 ~ 554.58 ft (mean: 148.85)

2023-04-01:
  Input: 64 pts, 6.75 ~ 584.15 ft
  Output: 16.93 ~ 546.37 ft (mean: 152.75)

2023-04-11:
  Input: 63 pts, 7.93 ~ 584.79 ft
  Output: 15.96 ~ 550.03 ft (mean: 159.13)

2023-04-21:
  Input: 66 pts, 8.20 ~ 584.35 ft
  Output: 17.14 ~ 550.51 ft (mean: 152.31)

2023-05-01:
  Input: 66 pts, 8.37 ~ 584.24 ft
  Output: 17.19 ~ 550.95 ft (mean: 153.11)

2023-05-11:
  Input: 65 pts, 8.34 ~ 584.38 ft
  Output: 17.26 ~ 548.07 ft (mean: 152.34)

2023-05-21:
  Input: 66 pts, 8.44 ~ 584.49 ft
  Output: 16.86 ~ 552.01 ft (mean: 153.33)

2023-05-31:
  Input: 66 pts, 8.54 ~ 584.59 ft
  Output: 16.78 ~ 551.58 ft (mean: 153.18)

2023-06-10:
  Input: 66 pts, 8.63 ~ 585.59 ft
  Output: 16.89 ~ 551.80 ft (mean: 153.19)

2023-06-20:
  Input: 66 pts, 8.69 ~ 586.09 ft
  Output: 17.11 ~ 551.84 ft (mean: 153.06)

2023-06-30:
  Input: 66 pts, 8.72 ~ 586.20 ft
  Output: 17.28 ~ 552.21 ft (mean: 152.54)

2023-07-10:
  Input: 66 pts, 8.83 ~ 587.31 ft
  Output: 17.03 ~ 553.47 ft (mean: 152.17)

2023-07-20:
  Input: 66 pts, 8.85 ~ 588.47 ft
  Output: 16.56 ~ 554.20 ft (mean: 152.13)

2023-07-30:
  Input: 66 pts, 8.77 ~ 589.15 ft
  Output: 16.42 ~ 554.84 ft (mean: 152.70)

2023-08-09:
  Input: 65 pts, 8.93 ~ 589.81 ft
  Output: 19.70 ~ 554.92 ft (mean: 155.70)

2023-08-19:
  Input: 66 pts, 8.97 ~ 590.11 ft
  Output: 19.70 ~ 554.89 ft (mean: 155.50)

2023-08-29:
  Input: 66 pts, 8.67 ~ 590.41 ft
  Output: 19.18 ~ 555.11 ft (mean: 155.00)

2023-09-08:
  Input: 66 pts, 8.92 ~ 590.90 ft
  Output: 19.11 ~ 555.63 ft (mean: 154.63)

2023-09-18:
  Input: 66 pts, 8.95 ~ 590.15 ft
  Output: 18.94 ~ 555.59 ft (mean: 154.02)

2023-09-28:
  Input: 66 pts, 8.88 ~ 589.05 ft
  Output: 18.81 ~ 555.67 ft (mean: 153.42)

2023-10-08:
  Input: 65 pts, 9.04 ~ 588.58 ft
  Output: 19.10 ~ 549.69 ft (mean: 151.21)

2023-10-18:
  Input: 68 pts, 9.00 ~ 588.35 ft
  Output: 16.33 ~ 549.04 ft (mean: 151.11)

2023-10-28:
  Input: 68 pts, 9.00 ~ 588.06 ft
  Output: 16.29 ~ 548.54 ft (mean: 150.91)

2023-11-07:
  Input: 67 pts, 9.21 ~ 587.73 ft
  Output: 16.21 ~ 532.12 ft (mean: 149.14)

2023-11-17:
  Input: 65 pts, 7.87 ~ 587.34 ft
  Output: 18.42 ~ 531.45 ft (mean: 153.45)

2023-11-27:
  Input: 67 pts, 9.07 ~ 587.10 ft
  Output: 16.04 ~ 530.73 ft (mean: 148.91)

2023-12-07:
  Input: 67 pts, 9.19 ~ 586.73 ft
  Output: 16.29 ~ 531.45 ft (mean: 149.13)

2023-12-17:
  Input: 68 pts, 9.09 ~ 586.40 ft
  Output: 16.43 ~ 547.51 ft (mean: 150.82)

2023-12-27:
  Input: 68 pts, 8.64 ~ 586.30 ft
  Output: 16.31 ~ 546.30 ft (mean: 150.21)

2024-01-06:
  Input: 68 pts, 8.56 ~ 585.94 ft
  Output: 16.37 ~ 545.55 ft (mean: 149.90)

2024-01-16:
  Input: 66 pts, 8.56 ~ 585.90 ft
  Output: 23.51 ~ 545.25 ft (mean: 150.01)

2024-01-26:
  Input: 68 pts, 7.06 ~ 585.91 ft
  Output: 16.00 ~ 545.50 ft (mean: 149.70)

2024-02-05:
  Input: 67 pts, 5.21 ~ 585.37 ft
  Output: 18.20 ~ 539.83 ft (mean: 153.32)

2024-02-15:
  Input: 67 pts, 6.53 ~ 585.57 ft
  Output: 15.63 ~ 544.07 ft (mean: 147.50)

2024-02-25:
  Input: 66 pts, 6.52 ~ 585.41 ft
  Output: 15.51 ~ 536.99 ft (mean: 146.53)

2024-03-06:
  Input: 62 pts, 6.43 ~ 585.08 ft
  Output: 15.53 ~ 537.31 ft (mean: 145.33)

2024-03-16:
  Input: 66 pts, 6.58 ~ 585.10 ft
  Output: 15.65 ~ 536.11 ft (mean: 146.37)

2024-03-26:
  Input: 65 pts, 6.57 ~ 585.06 ft
  Output: 15.88 ~ 536.11 ft (mean: 146.12)

2024-04-05:
  Input: 66 pts, 6.37 ~ 584.99 ft
  Output: 13.59 ~ 534.50 ft (mean: 143.92)

2024-04-15:
  Input: 67 pts, 6.39 ~ 585.25 ft
  Output: 10.55 ~ 534.97 ft (mean: 143.41)

2024-04-25:
  Input: 67 pts, 6.49 ~ 585.22 ft
  Output: 11.83 ~ 535.45 ft (mean: 143.90)

2024-05-05:
  Input: 68 pts, 6.55 ~ 585.37 ft
  Output: 12.82 ~ 535.02 ft (mean: 143.80)

2024-05-15:
  Input: 68 pts, 6.64 ~ 585.68 ft
  Output: 14.23 ~ 535.51 ft (mean: 144.34)

2024-05-25:
  Input: 68 pts, 6.66 ~ 585.97 ft
  Output: 14.83 ~ 535.21 ft (mean: 144.41)

2024-06-04:
  Input: 68 pts, 6.98 ~ 586.17 ft
  Output: 15.67 ~ 535.52 ft (mean: 144.81)

2024-06-14:
  Input: 68 pts, 7.28 ~ 586.97 ft
  Output: 16.47 ~ 536.17 ft (mean: 145.24)

2024-06-24:
  Input: 59 pts, 7.44 ~ 587.99 ft
  Output: 17.02 ~ 536.32 ft (mean: 146.13)

2024-07-04:
  Input: 68 pts, 7.60 ~ 588.86 ft
  Output: 17.24 ~ 537.26 ft (mean: 145.90)

2024-07-14:
  Input: 68 pts, 7.79 ~ 589.05 ft
  Output: 16.86 ~ 537.55 ft (mean: 145.90)

2024-07-24:
  Input: 66 pts, 8.12 ~ 590.70 ft
  Output: 16.66 ~ 523.13 ft (mean: 143.71)

2024-08-03:
  Input: 67 pts, 8.32 ~ 591.25 ft
  Output: 16.58 ~ 521.93 ft (mean: 143.49)

2024-08-13:
  Input: 67 pts, 8.41 ~ 591.70 ft
  Output: 16.77 ~ 521.47 ft (mean: 143.54)

2024-08-23:
  Input: 67 pts, 8.47 ~ 592.06 ft
  Output: 16.59 ~ 520.83 ft (mean: 143.20)

2024-09-02:
  Input: 69 pts, 8.49 ~ 592.30 ft
  Output: 16.61 ~ 540.75 ft (mean: 145.66)

2024-09-12:
  Input: 69 pts, 8.41 ~ 592.38 ft
  Output: 16.79 ~ 540.44 ft (mean: 145.76)

2024-09-22:
  Input: 69 pts, 8.34 ~ 592.67 ft
  Output: 16.62 ~ 538.77 ft (mean: 145.35)

2024-10-02:
  Input: 68 pts, 8.37 ~ 591.21 ft
  Output: 17.02 ~ 525.55 ft (mean: 143.81)

2024-10-12:
  Input: 68 pts, 8.42 ~ 590.71 ft
  Output: 16.94 ~ 525.21 ft (mean: 143.87)

2024-10-22:
  Input: 68 pts, 8.39 ~ 590.10 ft
  Output: 17.01 ~ 524.67 ft (mean: 143.54)

2024-11-01:
  Input: 69 pts, 8.34 ~ 589.62 ft
  Output: 15.70 ~ 536.77 ft (mean: 144.27)

2024-11-11:
  Input: 69 pts, 8.33 ~ 589.46 ft
  Output: 15.81 ~ 536.73 ft (mean: 144.32)

2024-11-21:
  Input: 69 pts, 8.27 ~ 589.34 ft
  Output: 15.57 ~ 536.24 ft (mean: 143.86)

2024-12-01:
  Input: 69 pts, 8.23 ~ 589.10 ft
  Output: 15.46 ~ 535.52 ft (mean: 143.59)

2024-12-11:
  Input: 69 pts, 8.23 ~ 588.84 ft
  Output: 15.90 ~ 535.25 ft (mean: 143.68)

2024-12-21:
  Input: 69 pts, 8.20 ~ 588.73 ft
  Output: 15.62 ~ 535.45 ft (mean: 143.59)

2024-12-31:
  Input: 69 pts, 8.20 ~ 588.34 ft
  Output: 15.77 ~ 534.93 ft (mean: 143.48)

2025-01-10:
  Input: 69 pts, 8.18 ~ 588.32 ft
  Output: 16.54 ~ 534.93 ft (mean: 143.84)

2025-01-20:
  Input: 68 pts, 8.08 ~ 588.03 ft
  Output: 18.32 ~ 535.68 ft (mean: 148.55)

2025-01-30:
  Input: 68 pts, 7.94 ~ 587.93 ft
  Output: 17.48 ~ 534.52 ft (mean: 144.29)

2025-02-09:
  Input: 68 pts, 7.92 ~ 587.49 ft
  Output: 17.40 ~ 533.97 ft (mean: 144.26)

2025-02-19:
  Input: 65 pts, 6.72 ~ 587.30 ft
  Output: 16.45 ~ 532.28 ft (mean: 144.37)

2025-03-01:
  Input: 67 pts, 7.17 ~ 587.09 ft
  Output: 17.04 ~ 532.15 ft (mean: 144.35)

2025-03-11:
  Input: 67 pts, 6.21 ~ 586.93 ft
  Output: 16.26 ~ 530.83 ft (mean: 143.72)

2025-03-21:
  Input: 67 pts, 6.57 ~ 586.87 ft
  Output: 16.27 ~ 530.44 ft (mean: 143.64)

2025-03-31:
  Input: 67 pts, 6.59 ~ 586.59 ft
  Output: 16.37 ~ 530.63 ft (mean: 143.77)

2025-04-10:
  Input: 56 pts, 6.68 ~ 586.61 ft
  Output: 17.22 ~ 531.71 ft (mean: 144.91)

2025-04-20:
  Input: 56 pts, 6.98 ~ 586.37 ft
  Output: 17.55 ~ 531.11 ft (mean: 144.98)

2025-04-30:
  Input: 69 pts, 7.21 ~ 586.16 ft
  Output: 16.19 ~ 529.47 ft (mean: 142.83)

2025-05-10:
  Input: 69 pts, 7.35 ~ 585.99 ft
  Output: 16.12 ~ 528.84 ft (mean: 142.72)

2025-05-20:
  Input: 69 pts, 7.53 ~ 585.98 ft
  Output: 16.54 ~ 529.00 ft (mean: 142.94)

2025-05-30:
  Input: 69 pts, 7.69 ~ 585.96 ft
  Output: 17.24 ~ 530.03 ft (mean: 143.44)

2025-06-09:
  Input: 69 pts, 7.32 ~ 585.86 ft
  Output: 17.57 ~ 530.61 ft (mean: 143.62)

2025-06-19:
  Input: 67 pts, 7.67 ~ 585.78 ft
  Output: 18.10 ~ 530.95 ft (mean: 144.25)

2025-06-29:
  Input: 60 pts, 7.91 ~ 585.76 ft
  Output: 18.18 ~ 530.50 ft (mean: 144.70)

2025-07-09:
  Input: 60 pts, 8.02 ~ 585.82 ft
  Output: 18.40 ~ 530.62 ft (mean: 144.96)

2025-07-19:
  Input: 69 pts, 8.14 ~ 585.79 ft
  Output: 18.52 ~ 529.58 ft (mean: 144.32)

2025-07-29:
  Input: 69 pts, 8.27 ~ 585.77 ft
  Output: 18.66 ~ 530.02 ft (mean: 144.57)

2025-08-08:
  Input: 65 pts, 8.35 ~ 585.60 ft
  Output: 16.56 ~ 489.96 ft (mean: 107.27)

2025-08-18:
  Input: 63 pts, 8.74 ~ 585.56 ft
  Output: 16.51 ~ 489.59 ft (mean: 108.27)

2025-08-28:
  Input: 63 pts, 8.78 ~ 585.60 ft
  Output: 16.47 ~ 489.83 ft (mean: 108.34)

2025-09-07:
  Input: 62 pts, 9.10 ~ 585.54 ft
  Output: 16.40 ~ 489.98 ft (mean: 108.35)

2025-09-17:
  Input: 62 pts, 9.26 ~ 585.32 ft
  Output: 16.25 ~ 489.55 ft (mean: 108.02)

2025-09-27:
  Input: 62 pts, 9.18 ~ 585.27 ft
  Output: 16.00 ~ 489.74 ft (mean: 107.44)

2025-10-07:
  Input: 62 pts, 9.09 ~ 585.15 ft
  Output: 15.85 ~ 489.63 ft (mean: 107.45)

2025-10-17:
  Input: 62 pts, 8.32 ~ 585.12 ft
  Output: 15.51 ~ 489.73 ft (mean: 106.27)

2025-10-27:
  Input: 62 pts, 8.75 ~ 585.00 ft
  Output: 15.52 ~ 489.56 ft (mean: 106.60)

2025-11-06:
  Input: 63 pts, 8.75 ~ 584.98 ft
  Output: 15.49 ~ 489.59 ft (mean: 107.12)

2025-11-16:
  Input: 62 pts, 5.90 ~ 584.73 ft
  Output: 14.97 ~ 489.46 ft (mean: 106.18)

2025-11-26:
  Input: 61 pts, 7.45 ~ 584.68 ft
  Output: 16.98 ~ 490.23 ft (mean: 109.74)

2025-12-06:
  Input: 58 pts, 7.94 ~ 584.45 ft
  Output: 17.00 ~ 489.45 ft (mean: 110.65)

2025-12-16:
  Input: 51 pts, 8.21 ~ 415.62 ft
  Output: 15.36 ~ 385.04 ft (mean: 103.13)

2025-12-26:
  Input: 44 pts, 6.22 ~ 415.18 ft
  Output: 15.38 ~ 394.38 ft (mean: 109.76)

